  29
IRMOF-like cluster (HCOO-capped), 4Zn    E -8.3270769519086E+03 DE-4.4E-09( 21)
 Zn  2.270413125018E-19  4.821545153849E-19 -1.976209335471E+00
 O   2.373812685425E-19  6.952116879121E-19 -3.452184643564E-04
 O   2.228767493795E+00 -1.587502876881E+00  1.760601762630E+00
 O   2.604340730625E-01  2.723920707196E+00  1.760601762630E+00
 O  -2.489201566858E+00 -1.136417830315E+00  1.760601762630E+00
 O   3.145775070154E+00  1.912167304328E-05 -8.332387092220E-01
 O  -1.572904094932E+00  2.724311564509E+00 -8.332387092220E-01
 O  -1.572870975222E+00 -2.724330686182E+00 -8.332387092220E-01
 O  -9.164742739363E-01  1.588403937892E+00 -2.688390697621E+00
 O  -9.173610247174E-01 -1.587891972090E+00 -2.688390697621E+00
 O   1.833835298654E+00 -5.119658021866E-04 -2.688390697621E+00
 O   2.228472411268E+00  1.588325965229E+00  1.760366611338E+00
 O  -2.489766841013E+00  1.135750737177E+00  1.760366611338E+00
 O   2.612944297447E-01 -2.724076702406E+00  1.760366611338E+00
 H  -1.918140134463E+00  3.323400054368E+00 -2.713718416476E+00
 H  -1.919078806789E+00 -3.322858111647E+00 -2.713718416476E+00
 H   3.837218941253E+00 -5.419427200159E-04 -2.713718416476E+00
 H   1.917614029731E+00  3.322519125105E+00  2.714388870613E+00
 H  -3.836192981766E+00 -5.570981525587E-04  2.714388870613E+00
 H   1.918578952036E+00 -3.321962026953E+00  2.714388870613E+00
 C  -1.468417955391E+00  2.544060145917E+00 -2.077373636793E+00
 C  -1.469011737425E+00 -2.543717325700E+00 -2.077373636793E+00
 C   2.937429692815E+00 -3.428202171412E-04 -2.077373636793E+00
 C   1.468798727921E+00 -2.543199446640E+00  2.077372862628E+00
 C   1.468075963720E+00  2.543616734746E+00  2.077372862628E+00
 C  -2.936874691641E+00 -4.172881056864E-04  2.077372862628E+00
 Zn  1.862934981550E+00  3.246821501166E-04  6.581762042131E-01
 Zn -9.317486737652E-01  1.613186678546E+00  6.581762042131E-01
 Zn -9.311863077849E-01 -1.613511360696E+00  6.581762042131E-01
