  77
Comment                 E -2.5852539965053E+03 DE 7.0E-09( 16)
 C  -1.325717132452E+00 -2.008273520649E-01 -1.366585345321E+00
 C   1.325717132452E+00 -2.008273520649E-01 -1.366585345321E+00
 C  -1.298295491460E-17 -2.453466802758E+00 -1.795837996865E-01
 C   4.996583063824E-18  1.543004848598E+00  2.719167513785E-01
 C  -2.738958274383E+00  9.608881998231E-01  1.922890154836E+00
 C   2.738958274383E+00  9.608881998231E-01  1.922890154836E+00
 C  -4.023381810529E+00  1.194620487608E+00  1.465839867209E+00
 C   4.023381810529E+00  1.194620487608E+00  1.465839867209E+00
 C  -4.601779223407E+00  2.435621972990E+00  1.624179171162E+00
 C   4.601779223407E+00  2.435621972990E+00  1.624179171162E+00
 C  -3.910049197272E+00  3.453893078856E+00  2.240975571341E+00
 C   3.910049197272E+00  3.453893078856E+00  2.240975571341E+00
 C  -2.627548392685E+00  3.233980245561E+00  2.694651418585E+00
 C   2.627548392685E+00  3.233980245561E+00  2.694651418585E+00
 C  -2.043833406436E+00  1.998646687411E+00  2.527573555669E+00
 C   2.043833406436E+00  1.998646687411E+00  2.527573555669E+00
 C  -1.726259098511E+00 -1.309663052482E+00  3.352746341219E+00
 C   1.726259098511E+00 -1.309663052482E+00  3.352746341219E+00
 C  -1.619030309932E+00 -2.687924698717E+00  3.467059203211E+00
 C   1.619030309932E+00 -2.687924698717E+00  3.467059203211E+00
 C  -1.571856162021E+00 -3.281253828417E+00  4.706059454904E+00
 C   1.571856162021E+00 -3.281253828417E+00  4.706059454904E+00
 C  -1.609294882289E+00 -2.505946297981E+00  5.845866009427E+00
 C   1.609294882289E+00 -2.505946297981E+00  5.845866009427E+00
 C  -1.700544042831E+00 -1.137151681449E+00  5.739380781475E+00
 C   1.700544042831E+00 -1.137151681449E+00  5.739380781475E+00
 C  -1.766612332352E+00 -5.387773836269E-01  4.498312610211E+00
 C   1.766612332352E+00 -5.387773836269E-01  4.498312610211E+00
 C  -3.279039855406E+00 -1.722435705980E+00  1.143161539548E+00
 C   3.279039855406E+00 -1.722435705980E+00  1.143161539548E+00
 C  -3.276026200763E+00 -2.378867145655E+00 -7.100782793774E-02
 C   3.276026200763E+00 -2.378867145655E+00 -7.100782793774E-02
 C  -4.328789025954E+00 -3.199359528115E+00 -4.208101440897E-01
 C   4.328789025954E+00 -3.199359528115E+00 -4.208101440897E-01
 C  -5.390991454794E+00 -3.360895449501E+00  4.382489848071E-01
 C   5.390991454794E+00 -3.360895449501E+00  4.382489848071E-01
 C  -5.402197606420E+00 -2.709557594222E+00  1.655553910234E+00
 C   5.402197606420E+00 -2.709557594222E+00  1.655553910234E+00
 C  -4.348662943855E+00 -1.902206016372E+00  2.012313419141E+00
 C   4.348662943855E+00 -1.902206016372E+00  2.012313419141E+00
 H  -4.571690657323E+00  3.940231059273E-01  9.799138242878E-01
 H   4.571690657323E+00  3.940231059273E-01  9.799138242878E-01
 H  -5.608933526260E+00  2.607842555125E+00  1.254472855792E+00
 H   5.608933526260E+00  2.607842555125E+00  1.254472855792E+00
 H  -4.370104640294E+00  4.430709910034E+00  2.361488426060E+00
 H   4.370104640294E+00  4.430709910034E+00  2.361488426060E+00
 H  -2.068817288575E+00  4.034576907172E+00  3.170655911639E+00
 H   2.068817288575E+00  4.034576907172E+00  3.170655911639E+00
 H  -1.020479888171E+00  1.840942899361E+00  2.857034672332E+00
 H   1.020479888171E+00  1.840942899361E+00  2.857034672332E+00
 H  -1.603668150275E+00 -3.300493435895E+00  2.568719967265E+00
 H   1.603668150275E+00 -3.300493435895E+00  2.568719967265E+00
 H  -1.500231075509E+00 -4.362379274007E+00  4.783421523012E+00
 H   1.500231075509E+00 -4.362379274007E+00  4.783421523012E+00
 H  -1.568904189199E+00 -2.975106614301E+00  6.824830899008E+00
 H   1.568904189199E+00 -2.975106614301E+00  6.824830899008E+00
 H  -1.737117221643E+00 -5.219146898557E-01  6.634230093924E+00
 H   1.737117221643E+00 -5.219146898557E-01  6.634230093924E+00
 H  -1.890692053913E+00  5.369162798277E-01  4.420849858898E+00
 H   1.890692053913E+00  5.369162798277E-01  4.420849858898E+00
 H  -2.436211312705E+00 -2.245538085523E+00 -7.426915872571E-01
 H   2.436211312705E+00 -2.245538085523E+00 -7.426915872571E-01
 H  -4.313340708834E+00 -3.714828559204E+00 -1.376668309617E+00
 H   4.313340708834E+00 -3.714828559204E+00 -1.376668309617E+00
 H  -6.221275673633E+00 -4.004947259317E+00  1.610435243505E-01
 H   6.221275673633E+00 -4.004947259317E+00  1.610435243505E-01
 H  -6.238415774137E+00 -2.840808611750E+00  2.336925288342E+00
 H   6.238415774137E+00 -2.840808611750E+00  2.336925288342E+00
 H  -4.339051335577E+00 -1.397162786266E+00  2.974793375699E+00
 H   4.339051335577E+00 -1.397162786266E+00  2.974793375699E+00
 MO -3.586925393578E-18 -4.584962149882E-01  6.131656893676E-02
 O  -2.056357946618E+00 -1.610257985179E-02 -2.242059572604E+00
 O   2.056357946618E+00 -1.610257985179E-02 -2.242059572604E+00
 O  -1.918256661068E-17 -3.596749617426E+00 -3.258896961550E-01
 O   5.024691477005E-18  2.690034956393E+00  3.175178242140E-01
 P  -1.899059732635E+00 -6.382655568544E-01  1.656788100795E+00
 P   1.899059732635E+00 -6.382655568544E-01  1.656788100795E+00
